@<TRIPOS>MOLECULE
Molecule Name
402 417 1 0 0
SMALL
NO_CHARGES


@<TRIPOS>ATOM
      1   C1    -0.2790     0.3624    -0.5365 C         1 UNL       0.000000
      2   C2     1.0878     0.4125    -0.6976 C         1 UNL       0.000000
      3   C3     1.6586     1.5254     0.0000 C         1 UNL       0.000000
      4   C4     0.6947     2.2600     0.6541 C         1 UNL       0.000000
      5   S5    -0.8311     1.6162     0.4222 S         1 UNL       0.000000
      6   H6    -0.9417    -0.3862    -0.9663 H         1 UNL       0.000000
      7   H7     1.6817    -0.2951    -1.2790 H         1 UNL       0.000000
      8   C8     3.1672     1.8350    -0.0008 C         1 UNL       0.000000
      9   H9     3.6178     1.4113    -0.8739 H         1 UNL       0.000000
     10  H10     3.3138     2.8949    -0.0024 H         1 UNL       0.000000
     11  C11     3.8163     1.2289     1.2573 C         1 UNL       0.000000
     12  H12     3.6697     0.1690     1.2590 H         1 UNL       0.000000
     13  H13     3.3657     1.6526     2.1305 H         1 UNL       0.000000
     14  C14     5.3248     1.5385     1.2565 C         1 UNL       0.000000
     15  H15     5.7754     1.1148     0.3834 H         1 UNL       0.000000
     16  H16     5.4714     2.5984     1.2549 H         1 UNL       0.000000
     17  C17     5.9739     0.9324     2.5147 C         1 UNL       0.000000
     18  H18     5.8273    -0.1275     2.5163 H         1 UNL       0.000000
     19  H19     5.5233     1.3561     3.3878 H         1 UNL       0.000000
     20  C20     7.4825     1.2420     2.5139 C         1 UNL       0.000000
     21  H21     7.9320     0.8236     1.6376 H         1 UNL       0.000000
     22  H22     7.6291     2.3019     2.5185 H         1 UNL       0.000000
     23  C23     8.1331     0.6283     3.7675 C         1 UNL       0.000000
     24  H24     7.9856    -0.4314     3.7635 H         1 UNL       0.000000
     25  H25     9.1815     0.8425     3.7664 H         1 UNL       0.000000
     26  H26     7.6844     1.0475     4.6438 H         1 UNL       0.000000
     27  C27     0.9472     3.5205     1.5020 C         1 UNL       0.000000
     28  C28    -0.0169     4.2550     2.1560 C         1 UNL       0.000000
     29  S29     2.4729     4.1643     1.7341 S         1 UNL       0.000000
     30  C30     0.5539     5.3671     2.8549 C         1 UNL       0.000000
     31  H31    -1.0862     4.0360     2.1560 H         1 UNL       0.000000
     32  C32     1.9207     5.4178     2.6934 C         1 UNL       0.000000
     33  C33    -0.2839     6.3645     3.6764 C         1 UNL       0.000000
     34  H34     0.2331     7.2993     3.7374 H         1 UNL       0.000000
     35  H35    -1.2311     6.5112     3.2008 H         1 UNL       0.000000
     36  C36    -0.5026     5.8053     5.0945 C         1 UNL       0.000000
     37  H37     0.4446     5.6586     5.5701 H         1 UNL       0.000000
     38  H38    -1.0197     4.8705     5.0335 H         1 UNL       0.000000
     39  C39    -1.3405     6.8027     5.9160 C         1 UNL       0.000000
     40  H40    -0.8234     7.7375     5.9770 H         1 UNL       0.000000
     41  H41    -2.2877     6.9494     5.4405 H         1 UNL       0.000000
     42  C42    -1.5592     6.2436     7.3342 C         1 UNL       0.000000
     43  H43    -0.6120     6.0969     7.8097 H         1 UNL       0.000000
     44  H44    -2.0762     5.3088     7.2732 H         1 UNL       0.000000
     45  C45    -2.3970     7.2410     8.1557 C         1 UNL       0.000000
     46  H46    -1.8828     8.1777     8.2114 H         1 UNL       0.000000
     47  H47    -3.3466     7.3830     7.6834 H         1 UNL       0.000000
     48  C48    -2.6082     6.6859     9.5765 C         1 UNL       0.000000
     49  H49    -1.6586     6.5429    10.0484 H         1 UNL       0.000000
     50  H50    -3.1894     7.3794    10.1476 H         1 UNL       0.000000
     51  H51    -3.1234     5.7497     9.5208 H         1 UNL       0.000000
     52  C52     2.8585     6.4771     3.3015 C         1 UNL       0.000000
     53  C53     4.2253     6.5278     3.1399 C         1 UNL       0.000000
     54  S54     2.3063     7.7305     4.2608 S         1 UNL       0.000000
     55  C55     4.7959     7.6405     3.8378 C         1 UNL       0.000000
     56  H56     4.8191     5.8205     2.5582 H         1 UNL       0.000000
     57  C57     3.8320     8.3746     4.4925 C         1 UNL       0.000000
     58  C58     6.3044     7.9505     3.8367 C         1 UNL       0.000000
     59  C59     4.0844     9.6349     5.3408 C         1 UNL       0.000000
     60  H60     6.7548     7.5273     2.9633 H         1 UNL       0.000000
     61  H61     6.4507     9.0105     3.8354 H         1 UNL       0.000000
     62  C62     6.9540     7.3441     5.0944 C         1 UNL       0.000000
     63  C63     3.1203    10.3689     5.9954 C         1 UNL       0.000000
     64  S64     5.6100    10.2790     5.5727 S         1 UNL       0.000000
     65  H65     6.8077     6.2842     5.0957 H         1 UNL       0.000000
     66  H66     6.5036     7.7674     5.9678 H         1 UNL       0.000000
     67  C67     8.4625     7.6541     5.0933 C         1 UNL       0.000000
     68  C68     3.6910    11.4808     6.6945 C         1 UNL       0.000000
     69  H69     2.0511    10.1495     5.9956 H         1 UNL       0.000000
     70  C70     5.0577    11.5319     6.5326 C         1 UNL       0.000000
     71  H71     8.9129     7.2309     4.2198 H         1 UNL       0.000000
     72  H72     8.6088     8.7141     5.0920 H         1 UNL       0.000000
     73  C73     9.1121     7.0477     6.3510 C         1 UNL       0.000000
     74  C74     2.8532    12.4776     7.5167 C         1 UNL       0.000000
     75  H75     8.9658     5.9878     6.3522 H         1 UNL       0.000000
     76  H76     8.6617     7.4710     7.2244 H         1 UNL       0.000000
     77  C77    10.6206     7.3577     6.3499 C         1 UNL       0.000000
     78  H78     3.3700    13.4126     7.5779 H         1 UNL       0.000000
     79  H79     1.9058    12.6243     7.0415 H         1 UNL       0.000000
     80  C80     2.6350    11.9179     8.9347 C         1 UNL       0.000000
     81  H81    11.0700     6.9398     5.4733 H         1 UNL       0.000000
     82  H82    10.7669     8.4177     6.3549 H         1 UNL       0.000000
     83  C83    11.2718     6.7437     7.6031 C         1 UNL       0.000000
     84  H84     3.5824    11.7713     9.4099 H         1 UNL       0.000000
     85  H85     2.1182    10.9830     8.8734 H         1 UNL       0.000000
     86  C86     1.7972    12.9147     9.7568 C         1 UNL       0.000000
     87  H87    11.1245     5.6839     7.5986 H         1 UNL       0.000000
     88  H88    12.3201     6.9582     7.6017 H         1 UNL       0.000000
     89  H89    10.8232     7.1625     8.4796 H         1 UNL       0.000000
     90  H90     2.3140    13.8496     9.8180 H         1 UNL       0.000000
     91  H91     0.8498    13.0614     9.2816 H         1 UNL       0.000000
     92  C92     1.5791    12.3550    11.1748 C         1 UNL       0.000000
     93  H93     2.5265    12.2083    11.6500 H         1 UNL       0.000000
     94  H94     1.0622    11.4201    11.1136 H         1 UNL       0.000000
     95  C95     0.7412    13.3518    11.9969 C         1 UNL       0.000000
     96  H96     1.2552    14.2886    12.0529 H         1 UNL       0.000000
     97  H97    -0.2086    13.4937    11.5250 H         1 UNL       0.000000
     98  C98     0.5306    12.7961    13.4176 C         1 UNL       0.000000
     99  H99     1.4804    12.6532    13.8891 H         1 UNL       0.000000
    100 H100    -0.0506    13.4893    13.9892 H         1 UNL       0.000000
    101 H101     0.0157    11.8599    13.3617 H         1 UNL       0.000000
    102 C102     5.9954    12.5913     7.1409 C         1 UNL       0.000000
    103 C103     7.3621    12.6422     6.9788 C         1 UNL       0.000000
    104 S104     5.4433    13.8442     8.1008 S         1 UNL       0.000000
    105 C105     7.9328    13.7549     7.6769 C         1 UNL       0.000000
    106 H106     7.9560    11.9353     6.3966 H         1 UNL       0.000000
    107 C107     6.9690    14.4886     8.3321 C         1 UNL       0.000000
    108 C108     9.4413    14.0652     7.6753 C         1 UNL       0.000000
    109 C109     7.2214    15.7486     9.1807 C         1 UNL       0.000000
    110 H110     9.8915    13.6423     6.8016 H         1 UNL       0.000000
    111 H111     9.5873    15.1252     7.6743 H         1 UNL       0.000000
    112 C112    10.0914    13.4585     8.9326 C         1 UNL       0.000000
    113 C113     6.2574    16.4822     9.8359 C         1 UNL       0.000000
    114 S114     8.7470    16.3929     9.4123 S         1 UNL       0.000000
    115 H115     9.9454    12.3985     8.9336 H         1 UNL       0.000000
    116 H116     9.6412    13.8814     9.8063 H         1 UNL       0.000000
    117 C117    11.5999    13.7688     8.9311 C         1 UNL       0.000000
    118 C118     6.8282    17.5941    10.5352 C         1 UNL       0.000000
    119 H119     5.1882    16.2626     9.8364 H         1 UNL       0.000000
    120 C120     8.1948    17.6455    10.3728 C         1 UNL       0.000000
    121 H121    12.0501    13.3459     8.0573 H         1 UNL       0.000000
    122 H122    11.7459    14.8288     8.9301 H         1 UNL       0.000000
    123 C123    12.2500    13.1622    10.1884 C         1 UNL       0.000000
    124 C124     5.9904    18.5905    11.3579 C         1 UNL       0.000000
    125 H125    12.1040    12.1022    10.1893 H         1 UNL       0.000000
    126 H126    11.7998    13.5851    11.0621 H         1 UNL       0.000000
    127 C127    13.7585    13.4725    10.1868 C         1 UNL       0.000000
    128 H128     6.5071    19.5255    11.4192 H         1 UNL       0.000000
    129 H129     5.0428    18.7371    10.8831 H         1 UNL       0.000000
    130 C130     5.7729    18.0302    12.7758 C         1 UNL       0.000000
    131 H131    14.2076    13.0549     9.3100 H         1 UNL       0.000000
    132 H132    13.9046    14.5324    10.1921 H         1 UNL       0.000000
    133 C133    14.4102    12.8582    11.4396 C         1 UNL       0.000000
    134 H134     6.7205    17.8836    13.2506 H         1 UNL       0.000000
    135 H135     5.2562    17.0952    12.7145 H         1 UNL       0.000000
    136 C136     4.9351    19.0267    13.5985 C         1 UNL       0.000000
    137 H137    14.2632    11.7984    11.4349 H         1 UNL       0.000000
    138 H138    15.4584    13.0729    11.4380 H         1 UNL       0.000000
    139 H139    13.9618    13.2766    12.3164 H         1 UNL       0.000000
    140 H140     5.4518    19.9617    13.6598 H         1 UNL       0.000000
    141 H141     3.9875    19.1733    13.1237 H         1 UNL       0.000000
    142 C142     4.7176    18.4664    15.0164 C         1 UNL       0.000000
    143 H143     5.6652    18.3198    15.4912 H         1 UNL       0.000000
    144 H144     4.2009    17.5314    14.9551 H         1 UNL       0.000000
    145 C145     3.8798    19.4629    15.8391 C         1 UNL       0.000000
    146 H146     4.3936    20.3997    15.8952 H         1 UNL       0.000000
    147 H147     2.9299    19.6047    15.3676 H         1 UNL       0.000000
    148 C148     3.6698    18.9067    17.2598 C         1 UNL       0.000000
    149 H149     4.6198    18.7638    17.7309 H         1 UNL       0.000000
    150 H150     3.0887    19.5995    17.8317 H         1 UNL       0.000000
    151 H151     3.1551    17.9703    17.2037 H         1 UNL       0.000000
    152 C152     9.1325    18.7049    10.9810 C         1 UNL       0.000000
    153 C153    10.4992    18.7561    10.8185 C         1 UNL       0.000000
    154 S154     8.5805    19.9574    11.9415 S         1 UNL       0.000000
    155 C155    11.0699    19.8687    11.5167 C         1 UNL       0.000000
    156 H156    11.0929    18.0495    10.2359 H         1 UNL       0.000000
    157 C157    10.1061    20.6020    12.1725 C         1 UNL       0.000000
    158 C158    12.5782    20.1793    11.5147 C         1 UNL       0.000000
    159 C159    10.3586    21.8618    13.0214 C         1 UNL       0.000000
    160 H160    13.0282    19.7568    10.6407 H         1 UNL       0.000000
    161 H161    12.7241    21.2393    11.5140 H         1 UNL       0.000000
    162 C162    13.2290    19.5724    12.7716 C         1 UNL       0.000000
    163 C163     9.3946    22.5950    13.6772 C         1 UNL       0.000000
    164 S164    11.8841    22.5064    13.2527 S         1 UNL       0.000000
    165 H165    13.0831    18.5124    12.7723 H         1 UNL       0.000000
    166 H166    12.7790    19.9949    13.6456 H         1 UNL       0.000000
    167 C167    14.7373    19.8830    12.7696 C         1 UNL       0.000000
    168 C168     9.9654    23.7068    14.3766 C         1 UNL       0.000000
    169 H169     8.3255    22.3752    13.6779 H         1 UNL       0.000000
    170 C170    11.3320    23.7585    14.2138 C         1 UNL       0.000000
    171 H171    15.1873    19.4605    11.8956 H         1 UNL       0.000000
    172 H172    14.8832    20.9430    12.7689 H         1 UNL       0.000000
    173 C173    15.3881    19.2761    14.0265 C         1 UNL       0.000000
    174 C174     9.1278    24.7028    15.1999 C         1 UNL       0.000000
    175 H175    15.2422    18.2161    14.0272 H         1 UNL       0.000000
    176 H176    14.9381    19.6986    14.9005 H         1 UNL       0.000000
    177 C177    16.8964    19.5867    14.0245 C         1 UNL       0.000000
    178 H178     9.6442    25.6378    15.2614 H         1 UNL       0.000000
    179 H179     8.1800    24.8493    14.7255 H         1 UNL       0.000000
    180 C180     8.9108    24.1420    16.6177 C         1 UNL       0.000000
    181 H181    17.3453    19.1695    13.1474 H         1 UNL       0.000000
    182 H182    17.0423    20.6467    14.0301 H         1 UNL       0.000000
    183 C183    17.5487    18.9721    15.2769 C         1 UNL       0.000000
    184 H184     9.8586    23.9955    17.0922 H         1 UNL       0.000000
    185 H185     8.3943    23.2070    16.5563 H         1 UNL       0.000000
    186 C186     8.0732    25.1380    17.4410 C         1 UNL       0.000000
    187 H187    17.4019    17.9123    15.2719 H         1 UNL       0.000000
    188 H188    18.5969    19.1870    15.2750 H         1 UNL       0.000000
    189 H189    17.1006    19.3902    16.1540 H         1 UNL       0.000000
    190 H190     8.5896    26.0731    17.5025 H         1 UNL       0.000000
    191 H191     7.1254    25.2846    16.9666 H         1 UNL       0.000000
    192 C192     7.8562    24.5773    18.8588 C         1 UNL       0.000000
    193 H193     8.8040    24.4308    19.3333 H         1 UNL       0.000000
    194 H194     7.3397    23.6422    18.7974 H         1 UNL       0.000000
    195 C195     7.0186    25.5733    19.6822 C         1 UNL       0.000000
    196 H196     7.5322    26.5103    19.7384 H         1 UNL       0.000000
    197 H197     6.0684    25.7151    19.2110 H         1 UNL       0.000000
    198 C198     6.8092    25.0167    21.1027 C         1 UNL       0.000000
    199 H199     7.7594    24.8738    21.5734 H         1 UNL       0.000000
    200 H200     6.2281    25.7092    21.6751 H         1 UNL       0.000000
    201 H201     6.2946    24.0802    21.0465 H         1 UNL       0.000000
    202 C202    12.2697    24.8179    14.8220 C         1 UNL       0.000000
    203 C203    13.6363    24.8695    14.6590 C         1 UNL       0.000000
    204 S204    11.7178    26.0700    15.7831 S         1 UNL       0.000000
    205 C205    14.2070    25.9819    15.3574 C         1 UNL       0.000000
    206 H206    14.2300    24.1632    14.0760 H         1 UNL       0.000000
    207 C207    13.2433    26.7148    16.0137 C         1 UNL       0.000000
    208 C208    15.7153    26.2928    15.3549 C         1 UNL       0.000000
    209 C209    13.4959    27.9745    16.8629 C         1 UNL       0.000000
    210 H210    16.1651    25.8707    14.4807 H         1 UNL       0.000000
    211 H211    15.8610    27.3529    15.3545 H         1 UNL       0.000000
    212 C212    16.3666    25.6857    16.6114 C         1 UNL       0.000000
    213 C213    12.5320    28.7073    17.5192 C         1 UNL       0.000000
    214 S214    15.0213    28.6193    17.0938 S         1 UNL       0.000000
    215 H215    16.2210    24.6256    16.6118 H         1 UNL       0.000000
    216 H216    15.9168    26.1078    17.4857 H         1 UNL       0.000000
    217 C217    17.8749    25.9966    16.6090 C         1 UNL       0.000000
    218 C218    13.1028    29.8189    18.2188 C         1 UNL       0.000000
    219 H219    11.4629    28.4873    17.5203 H         1 UNL       0.000000
    220 C220    14.4693    29.8710    18.0555 C         1 UNL       0.000000
    221 H221    18.3247    25.5744    15.7347 H         1 UNL       0.000000
    222 H222    18.0206    27.0566    16.6086 H         1 UNL       0.000000
    223 C223    18.5262    25.3894    17.8655 C         1 UNL       0.000000
    224 C224    12.2652    30.8145    19.0427 C         1 UNL       0.000000
    225 H225    18.3805    24.3294    17.8659 H         1 UNL       0.000000
    226 H226    18.0764    25.8116    18.7398 H         1 UNL       0.000000
    227 C227    20.0345    25.7003    17.8631 C         1 UNL       0.000000
    228 H228    12.7815    31.7496    19.1043 H         1 UNL       0.000000
    229 H229    11.3172    30.9610    18.5687 H         1 UNL       0.000000
    230 C230    12.0489    30.2533    20.4604 C         1 UNL       0.000000
    231 H231    20.4832    25.2835    16.9857 H         1 UNL       0.000000
    232 H232    20.1802    26.7603    17.8689 H         1 UNL       0.000000
    233 C233    20.6874    25.0855    19.1150 C         1 UNL       0.000000
    234 H234    12.9969    30.1068    20.9345 H         1 UNL       0.000000
    235 H235    11.5326    29.3181    20.3989 H         1 UNL       0.000000
    236 C236    11.2113    31.2489    21.2844 C         1 UNL       0.000000
    237 H237    20.5407    24.0256    19.1098 H         1 UNL       0.000000
    238 H238    21.7355    25.3006    19.1128 H         1 UNL       0.000000
    239 H239    20.2394    25.5032    19.9924 H         1 UNL       0.000000
    240 H240    11.7276    32.1840    21.3459 H         1 UNL       0.000000
    241 H241    10.2633    31.3954    20.8103 H         1 UNL       0.000000
    242 C242    10.9950    30.6877    22.7021 C         1 UNL       0.000000
    243 H243    11.9430    30.5412    23.1761 H         1 UNL       0.000000
    244 H244    10.4787    29.7525    22.6405 H         1 UNL       0.000000
    245 C245    10.1574    31.6832    23.5260 C         1 UNL       0.000000
    246 H246    10.6709    32.6203    23.5823 H         1 UNL       0.000000
    247 H247     9.2071    31.8250    23.0552 H         1 UNL       0.000000
    248 C248     9.9486    31.1261    24.9464 C         1 UNL       0.000000
    249 H249    10.8990    30.9833    25.4168 H         1 UNL       0.000000
    250 H250     9.3676    31.8183    25.5192 H         1 UNL       0.000000
    251 H251     9.4342    30.1896    24.8901 H         1 UNL       0.000000
    252 C252    15.4070    30.9304    18.6638 C         1 UNL       0.000000
    253 C253    16.7735    30.9823    18.5003 C         1 UNL       0.000000
    254 S254    14.8551    32.1821    19.6254 S         1 UNL       0.000000
    255 C255    17.3443    32.0946    19.1988 C         1 UNL       0.000000
    256 H256    17.3672    30.2762    17.9169 H         1 UNL       0.000000
    257 C257    16.3807    32.8271    19.8557 C         1 UNL       0.000000
    258 C258    18.8525    32.4058    19.1960 C         1 UNL       0.000000
    259 C259    16.6332    34.0865    20.7052 C         1 UNL       0.000000
    260 H260    19.3021    31.9840    18.3214 H         1 UNL       0.000000
    261 H261    18.9980    33.4659    19.1958 H         1 UNL       0.000000
    262 C262    19.5044    31.7984    20.4520 C         1 UNL       0.000000
    263 C263    15.6695    34.8190    21.3621 C         1 UNL       0.000000
    264 S264    18.1587    34.7316    20.9358 S         1 UNL       0.000000
    265 H265    19.3589    30.7383    20.4522 H         1 UNL       0.000000
    266 H266    19.0548    32.2202    21.3266 H         1 UNL       0.000000
    267 C267    21.0126    32.1096    20.4492 C         1 UNL       0.000000
    268 C268    16.2403    35.9305    22.0618 C         1 UNL       0.000000
    269 H269    14.6004    34.5987    21.3635 H         1 UNL       0.000000
    270 C270    17.6067    35.9829    21.8981 C         1 UNL       0.000000
    271 H271    21.4622    31.6878    19.5746 H         1 UNL       0.000000
    272 H272    21.1580    33.1697    20.4490 H         1 UNL       0.000000
    273 C273    21.6645    31.5022    21.7052 C         1 UNL       0.000000
    274 C274    15.4028    36.9256    22.8864 C         1 UNL       0.000000
    275 H275    21.5190    30.4421    21.7054 H         1 UNL       0.000000
    276 H276    21.2149    31.9240    22.5798 H         1 UNL       0.000000
    277 C277    23.1727    31.8134    21.7024 C         1 UNL       0.000000
    278 H278    15.9190    37.8609    22.9480 H         1 UNL       0.000000
    279 H279    14.4546    37.0721    22.4126 H         1 UNL       0.000000
    280 C280    15.1871    36.3640    24.3039 C         1 UNL       0.000000
    281 H281    23.6211    31.3969    20.8247 H         1 UNL       0.000000
    282 H282    23.3182    32.8734    21.7085 H         1 UNL       0.000000
    283 C283    23.8261    31.1984    22.9539 C         1 UNL       0.000000
    284 H284    16.1353    36.2175    24.7777 H         1 UNL       0.000000
    285 H285    14.6709    35.4287    24.2423 H         1 UNL       0.000000
    286 C286    14.3496    37.3591    25.1285 C         1 UNL       0.000000
    287 H287    23.6797    30.1384    22.9484 H         1 UNL       0.000000
    288 H288    24.8742    31.4137    22.9514 H         1 UNL       0.000000
    289 H289    23.3784    31.6157    23.8316 H         1 UNL       0.000000
    290 H290    14.8657    38.2944    25.1901 H         1 UNL       0.000000
    291 H291    13.4014    37.5056    24.6548 H         1 UNL       0.000000
    292 C292    14.1339    36.7974    26.5461 C         1 UNL       0.000000
    293 H293    15.0821    36.6510    27.0198 H         1 UNL       0.000000
    294 H294    13.6177    35.8622    26.4844 H         1 UNL       0.000000
    295 C295    13.2964    37.7926    27.3706 C         1 UNL       0.000000
    296 H296    13.8097    38.7297    27.4270 H         1 UNL       0.000000
    297 H297    12.3458    37.9343    26.9002 H         1 UNL       0.000000
    298 C298    13.0882    37.2350    28.7909 C         1 UNL       0.000000
    299 H299    14.0388    37.0922    29.2609 H         1 UNL       0.000000
    300 H300    12.5072    37.9269    29.3641 H         1 UNL       0.000000
    301 H301    12.5739    36.2984    28.7345 H         1 UNL       0.000000
    302 C302    18.5444    37.0423    22.5063 C         1 UNL       0.000000
    303 C303    19.9109    37.0945    22.3424 C         1 UNL       0.000000
    304 S304    17.9927    38.2936    23.4685 S         1 UNL       0.000000
    305 C305    20.4817    38.2068    23.0410 C         1 UNL       0.000000
    306 H306    20.5045    36.3888    21.7585 H         1 UNL       0.000000
    307 C307    19.5181    38.9389    23.6985 C         1 UNL       0.000000
    308 C308    21.9898    38.5183    23.0378 C         1 UNL       0.000000
    309 C309    19.7707    40.1981    24.5483 C         1 UNL       0.000000
    310 H310    22.4392    38.0968    22.1629 H         1 UNL       0.000000
    311 H311    22.1351    39.5784    23.0379 H         1 UNL       0.000000
    312 C312    22.6423    37.9106    24.2934 C         1 UNL       0.000000
    313 C313    18.8071    40.9301    25.2058 C         1 UNL       0.000000
    314 S314    21.2961    40.8433    24.7786 S         1 UNL       0.000000
    315 H315    22.4970    36.8505    24.2933 H         1 UNL       0.000000
    316 H316    22.1929    38.3320    25.1683 H         1 UNL       0.000000
    317 C317    24.1504    38.2221    24.2901 C         1 UNL       0.000000
    318 C318    19.3779    42.0415    25.9056 C         1 UNL       0.000000
    319 H319    17.7381    40.7096    25.2074 H         1 UNL       0.000000
    320 C320    20.7443    42.0942    25.7414 C         1 UNL       0.000000
    321 H321    24.5997    37.8007    23.4153 H         1 UNL       0.000000
    322 H322    24.2956    39.2822    24.2903 H         1 UNL       0.000000
    323 C323    24.8028    37.6144    25.5458 C         1 UNL       0.000000
    324 C324    18.5405    43.0362    26.7308 C         1 UNL       0.000000
    325 H325    24.6576    36.5543    25.5456 H         1 UNL       0.000000
    326 H326    24.3535    38.0359    26.4206 H         1 UNL       0.000000
    327 C327    26.3110    37.9259    25.5425 C         1 UNL       0.000000
    328 H328    19.0565    43.9716    26.7925 H         1 UNL       0.000000
    329 H329    17.5921    43.1827    26.2574 H         1 UNL       0.000000
    330 C330    18.3254    42.4741    28.1483 C         1 UNL       0.000000
    331 H331    26.7592    37.5098    24.6645 H         1 UNL       0.000000
    332 H332    26.4562    38.9860    25.5489 H         1 UNL       0.000000
    333 C333    26.9650    37.3106    26.7936 C         1 UNL       0.000000
    334 H334    19.2738    42.3277    28.6216 H         1 UNL       0.000000
    335 H335    17.8094    41.5388    28.0865 H         1 UNL       0.000000
    336 C336    17.4880    43.4688    28.9734 C         1 UNL       0.000000
    337 H337    26.8188    36.2507    26.7878 H         1 UNL       0.000000
    338 H338    28.0131    37.5261    26.7908 H         1 UNL       0.000000
    339 H339    26.5175    37.7276    27.6716 H         1 UNL       0.000000
    340 H340    18.0040    44.4042    29.0351 H         1 UNL       0.000000
    341 H341    16.5396    43.6152    28.5000 H         1 UNL       0.000000
    342 C342    17.2729    42.9067    30.3909 C         1 UNL       0.000000
    343 H343    18.2213    42.7602    30.8642 H         1 UNL       0.000000
    344 H344    16.7569    41.9713    30.3291 H         1 UNL       0.000000
    345 C345    16.4355    43.9014    31.2160 C         1 UNL       0.000000
    346 H346    16.9486    44.8386    31.2725 H         1 UNL       0.000000
    347 H347    15.4847    44.0431    30.7460 H         1 UNL       0.000000
    348 C348    16.2279    43.3433    32.6362 C         1 UNL       0.000000
    349 H349    17.1787    43.2006    33.1059 H         1 UNL       0.000000
    350 H350    15.6470    44.0350    33.2099 H         1 UNL       0.000000
    351 H351    15.7138    42.4066    32.5797 H         1 UNL       0.000000
    352 C352    21.6820    43.1536    26.3497 C         1 UNL       0.000000
    353 C353    23.0484    43.2062    26.1853 C         1 UNL       0.000000
    354 S354    21.1303    44.4045    27.3125 S         1 UNL       0.000000
    355 C355    23.6192    44.3183    26.8841 C         1 UNL       0.000000
    356 H356    23.6419    42.5008    25.6010 H         1 UNL       0.000000
    357 C357    22.6557    45.0500    27.5421 C         1 UNL       0.000000
    358 C358    25.1273    44.6301    26.8804 C         1 UNL       0.000000
    359 C359    22.9084    46.3090    28.3922 C         1 UNL       0.000000
    360 H360    25.5764    44.2091    26.0052 H         1 UNL       0.000000
    361 H361    25.2723    45.6903    26.8808 H         1 UNL       0.000000
    362 C362    25.7802    44.0222    28.1356 C         1 UNL       0.000000
    363 C363    21.9448    47.0406    29.0502 C         1 UNL       0.000000
    364 S364    24.4337    46.9545    28.6221 S         1 UNL       0.000000
    365 H365    25.6352    42.9621    28.1352 H         1 UNL       0.000000
    366 H366    25.3311    44.4433    29.0107 H         1 UNL       0.000000
    367 C367    27.2883    44.3340    28.1319 C         1 UNL       0.000000
    368 C368    22.5156    48.1520    29.7502 C         1 UNL       0.000000
    369 H369    20.8758    46.8200    29.0522 H         1 UNL       0.000000
    370 C370    23.8819    48.2050    29.5855 C         1 UNL       0.000000
    371 H371    27.7375    43.9129    27.2567 H         1 UNL       0.000000
    372 H372    27.4334    45.3941    28.1323 H         1 UNL       0.000000
    373 C373    27.9413    43.7261    29.3871 C         1 UNL       0.000000
    374 C374    21.6783    49.1463    30.5759 C         1 UNL       0.000000
    375 H375    24.5445    48.9536    30.0153 H         1 UNL       0.000000
    376 H376    27.7963    42.6660    29.3867 H         1 UNL       0.000000
    377 H377    27.4922    44.1472    30.2623 H         1 UNL       0.000000
    378 C378    29.4494    44.0379    29.3834 C         1 UNL       0.000000
    379 H379    22.1941    50.0817    30.6378 H         1 UNL       0.000000
    380 H380    20.7297    49.2927    30.1030 H         1 UNL       0.000000
    381 C381    21.4638    48.5836    31.9933 C         1 UNL       0.000000
    382 H382    29.8974    43.6221    28.5052 H         1 UNL       0.000000
    383 H383    29.5945    45.0980    29.3901 H         1 UNL       0.000000
    384 C384    30.1040    43.4224    30.6341 C         1 UNL       0.000000
    385 H385    22.4124    48.4373    32.4663 H         1 UNL       0.000000
    386 H386    20.9480    47.6482    31.9315 H         1 UNL       0.000000
    387 C387    20.6265    49.5780    32.8191 C         1 UNL       0.000000
    388 H388    29.9580    42.3624    30.6280 H         1 UNL       0.000000
    389 H389    31.1520    43.6381    30.6310 H         1 UNL       0.000000
    390 H390    29.6567    43.8389    31.5124 H         1 UNL       0.000000
    391 H391    21.1423    50.5134    32.8809 H         1 UNL       0.000000
    392 H392    19.6779    49.7243    32.3461 H         1 UNL       0.000000
    393 C393    20.4120    49.0153    34.2365 C         1 UNL       0.000000
    394 H394    21.3606    48.8689    34.7094 H         1 UNL       0.000000
    395 H395    19.8962    48.0799    34.1746 H         1 UNL       0.000000
    396 C396    19.5747    50.0096    35.0622 C         1 UNL       0.000000
    397 H397    20.0876    50.9470    35.1189 H         1 UNL       0.000000
    398 H398    18.6237    50.1513    34.5925 H         1 UNL       0.000000
    399 C399    19.3677    49.4511    36.4823 C         1 UNL       0.000000
    400 H400    20.3187    49.3084    36.9516 H         1 UNL       0.000000
    401 H401    18.7869    50.1424    37.0564 H         1 UNL       0.000000
    402 H402    18.8538    48.5143    36.4257 H         1 UNL       0.000000
@<TRIPOS>BOND
     1     1     2 2   
     2     1     5 1   
     3     1     6 1   
     4     2     3 1   
     5     2     7 1   
     6     3     4 2   
     7     3     8 1   
     8     4     5 1   
     9     4    27 1   
    10     8     9 1   
    11     8    10 1   
    12     8    11 1   
    13    11    12 1   
    14    11    13 1   
    15    11    14 1   
    16    14    15 1   
    17    14    16 1   
    18    14    17 1   
    19    17    18 1   
    20    17    19 1   
    21    17    20 1   
    22    20    21 1   
    23    20    22 1   
    24    20    23 1   
    25    23    24 1   
    26    23    25 1   
    27    23    26 1   
    28    27    28 2   
    29    27    29 1   
    30    28    30 1   
    31    28    31 1   
    32    29    32 1   
    33    30    32 2   
    34    30    33 1   
    35    32    52 1   
    36    33    34 1   
    37    33    35 1   
    38    33    36 1   
    39    36    37 1   
    40    36    38 1   
    41    36    39 1   
    42    39    40 1   
    43    39    41 1   
    44    39    42 1   
    45    42    43 1   
    46    42    44 1   
    47    42    45 1   
    48    45    46 1   
    49    45    47 1   
    50    45    48 1   
    51    48    49 1   
    52    48    50 1   
    53    48    51 1   
    54    52    53 2   
    55    52    54 1   
    56    53    55 1   
    57    53    56 1   
    58    54    57 1   
    59    55    57 2   
    60    55    58 1   
    61    57    59 1   
    62    58    60 1   
    63    58    61 1   
    64    58    62 1   
    65    59    63 2   
    66    59    64 1   
    67    62    65 1   
    68    62    66 1   
    69    62    67 1   
    70    63    68 1   
    71    63    69 1   
    72    64    70 1   
    73    67    71 1   
    74    67    72 1   
    75    67    73 1   
    76    68    70 2   
    77    68    74 1   
    78    70   102 1   
    79    73    75 1   
    80    73    76 1   
    81    73    77 1   
    82    74    78 1   
    83    74    79 1   
    84    74    80 1   
    85    77    81 1   
    86    77    82 1   
    87    77    83 1   
    88    80    84 1   
    89    80    85 1   
    90    80    86 1   
    91    83    87 1   
    92    83    88 1   
    93    83    89 1   
    94    86    90 1   
    95    86    91 1   
    96    86    92 1   
    97    92    93 1   
    98    92    94 1   
    99    92    95 1   
   100    95    96 1   
   101    95    97 1   
   102    95    98 1   
   103    98    99 1   
   104    98   100 1   
   105    98   101 1   
   106   102   103 2   
   107   102   104 1   
   108   103   105 1   
   109   103   106 1   
   110   104   107 1   
   111   105   107 2   
   112   105   108 1   
   113   107   109 1   
   114   108   110 1   
   115   108   111 1   
   116   108   112 1   
   117   109   113 2   
   118   109   114 1   
   119   112   115 1   
   120   112   116 1   
   121   112   117 1   
   122   113   118 1   
   123   113   119 1   
   124   114   120 1   
   125   117   121 1   
   126   117   122 1   
   127   117   123 1   
   128   118   120 2   
   129   118   124 1   
   130   120   152 1   
   131   123   125 1   
   132   123   126 1   
   133   123   127 1   
   134   124   128 1   
   135   124   129 1   
   136   124   130 1   
   137   127   131 1   
   138   127   132 1   
   139   127   133 1   
   140   130   134 1   
   141   130   135 1   
   142   130   136 1   
   143   133   137 1   
   144   133   138 1   
   145   133   139 1   
   146   136   140 1   
   147   136   141 1   
   148   136   142 1   
   149   142   143 1   
   150   142   144 1   
   151   142   145 1   
   152   145   146 1   
   153   145   147 1   
   154   145   148 1   
   155   148   149 1   
   156   148   150 1   
   157   148   151 1   
   158   152   153 2   
   159   152   154 1   
   160   153   155 1   
   161   153   156 1   
   162   154   157 1   
   163   155   157 2   
   164   155   158 1   
   165   157   159 1   
   166   158   160 1   
   167   158   161 1   
   168   158   162 1   
   169   159   163 2   
   170   159   164 1   
   171   162   165 1   
   172   162   166 1   
   173   162   167 1   
   174   163   168 1   
   175   163   169 1   
   176   164   170 1   
   177   167   171 1   
   178   167   172 1   
   179   167   173 1   
   180   168   170 2   
   181   168   174 1   
   182   170   202 1   
   183   173   175 1   
   184   173   176 1   
   185   173   177 1   
   186   174   178 1   
   187   174   179 1   
   188   174   180 1   
   189   177   181 1   
   190   177   182 1   
   191   177   183 1   
   192   180   184 1   
   193   180   185 1   
   194   180   186 1   
   195   183   187 1   
   196   183   188 1   
   197   183   189 1   
   198   186   190 1   
   199   186   191 1   
   200   186   192 1   
   201   192   193 1   
   202   192   194 1   
   203   192   195 1   
   204   195   196 1   
   205   195   197 1   
   206   195   198 1   
   207   198   199 1   
   208   198   200 1   
   209   198   201 1   
   210   202   203 2   
   211   202   204 1   
   212   203   205 1   
   213   203   206 1   
   214   204   207 1   
   215   205   207 2   
   216   205   208 1   
   217   207   209 1   
   218   208   210 1   
   219   208   211 1   
   220   208   212 1   
   221   209   213 2   
   222   209   214 1   
   223   212   215 1   
   224   212   216 1   
   225   212   217 1   
   226   213   218 1   
   227   213   219 1   
   228   214   220 1   
   229   217   221 1   
   230   217   222 1   
   231   217   223 1   
   232   218   220 2   
   233   218   224 1   
   234   220   252 1   
   235   223   225 1   
   236   223   226 1   
   237   223   227 1   
   238   224   228 1   
   239   224   229 1   
   240   224   230 1   
   241   227   231 1   
   242   227   232 1   
   243   227   233 1   
   244   230   234 1   
   245   230   235 1   
   246   230   236 1   
   247   233   237 1   
   248   233   238 1   
   249   233   239 1   
   250   236   240 1   
   251   236   241 1   
   252   236   242 1   
   253   242   243 1   
   254   242   244 1   
   255   242   245 1   
   256   245   246 1   
   257   245   247 1   
   258   245   248 1   
   259   248   249 1   
   260   248   250 1   
   261   248   251 1   
   262   252   253 2   
   263   252   254 1   
   264   253   255 1   
   265   253   256 1   
   266   254   257 1   
   267   255   257 2   
   268   255   258 1   
   269   257   259 1   
   270   258   260 1   
   271   258   261 1   
   272   258   262 1   
   273   259   263 2   
   274   259   264 1   
   275   262   265 1   
   276   262   266 1   
   277   262   267 1   
   278   263   268 1   
   279   263   269 1   
   280   264   270 1   
   281   267   271 1   
   282   267   272 1   
   283   267   273 1   
   284   268   270 2   
   285   268   274 1   
   286   270   302 1   
   287   273   275 1   
   288   273   276 1   
   289   273   277 1   
   290   274   278 1   
   291   274   279 1   
   292   274   280 1   
   293   277   281 1   
   294   277   282 1   
   295   277   283 1   
   296   280   284 1   
   297   280   285 1   
   298   280   286 1   
   299   283   287 1   
   300   283   288 1   
   301   283   289 1   
   302   286   290 1   
   303   286   291 1   
   304   286   292 1   
   305   292   293 1   
   306   292   294 1   
   307   292   295 1   
   308   295   296 1   
   309   295   297 1   
   310   295   298 1   
   311   298   299 1   
   312   298   300 1   
   313   298   301 1   
   314   302   303 2   
   315   302   304 1   
   316   303   305 1   
   317   303   306 1   
   318   304   307 1   
   319   305   307 2   
   320   305   308 1   
   321   307   309 1   
   322   308   310 1   
   323   308   311 1   
   324   308   312 1   
   325   309   313 2   
   326   309   314 1   
   327   312   315 1   
   328   312   316 1   
   329   312   317 1   
   330   313   318 1   
   331   313   319 1   
   332   314   320 1   
   333   317   321 1   
   334   317   322 1   
   335   317   323 1   
   336   318   320 2   
   337   318   324 1   
   338   320   352 1   
   339   323   325 1   
   340   323   326 1   
   341   323   327 1   
   342   324   328 1   
   343   324   329 1   
   344   324   330 1   
   345   327   331 1   
   346   327   332 1   
   347   327   333 1   
   348   330   334 1   
   349   330   335 1   
   350   330   336 1   
   351   333   337 1   
   352   333   338 1   
   353   333   339 1   
   354   336   340 1   
   355   336   341 1   
   356   336   342 1   
   357   342   343 1   
   358   342   344 1   
   359   342   345 1   
   360   345   346 1   
   361   345   347 1   
   362   345   348 1   
   363   348   349 1   
   364   348   350 1   
   365   348   351 1   
   366   352   353 2   
   367   352   354 1   
   368   353   355 1   
   369   353   356 1   
   370   354   357 1   
   371   355   357 2   
   372   355   358 1   
   373   357   359 1   
   374   358   360 1   
   375   358   361 1   
   376   358   362 1   
   377   359   363 2   
   378   359   364 1   
   379   362   365 1   
   380   362   366 1   
   381   362   367 1   
   382   363   368 1   
   383   363   369 1   
   384   364   370 1   
   385   367   371 1   
   386   367   372 1   
   387   367   373 1   
   388   368   370 2   
   389   368   374 1   
   390   370   375 1   
   391   373   376 1   
   392   373   377 1   
   393   373   378 1   
   394   374   379 1   
   395   374   380 1   
   396   374   381 1   
   397   378   382 1   
   398   378   383 1   
   399   378   384 1   
   400   381   385 1   
   401   381   386 1   
   402   381   387 1   
   403   384   388 1   
   404   384   389 1   
   405   384   390 1   
   406   387   391 1   
   407   387   392 1   
   408   387   393 1   
   409   393   394 1   
   410   393   395 1   
   411   393   396 1   
   412   396   397 1   
   413   396   398 1   
   414   396   399 1   
   415   399   400 1   
   416   399   401 1   
   417   399   402 1   
@<TRIPOS>SUBSTRUCTURE
     1 UNL         1 TEMP              0 ****  ****    0 ROOT
